/batch
/config,noeldb,1     ! force off writing results to database
*get,_wallstrt,active,,time,wall
! ANSYS input file written by Workbench version 2022 R2
! File used for geometry attach: D:\Sneha\IIT\Assignments\Beam_Analysis_files\dp0\SYS\DM\SYS.agdb
/title,Beam_Analysis--Static Structural (A5)
! ****** Begin Custom Load Command Snippet ******
/COM, ACT Extensions:
/COM,     LSDYNA, 2022.2
/COM,     5f463412-bd3e-484b-87e7-cbc0a665e474, wbex
/COM,/COM,     ANSYSMotion, 2022.2
/COM,     20180725-3f81-49eb-9f31-41364844c769, wbex
/COM,/COM,     AqwaLoadMapping, 2022.2
/COM,     4a217913-2035-4362-96b3-10d129d8ee46, wbex
/COM,
! ****** End   Custom Load Command Snippet ******
*DIM,_wb_ProjectScratch_dir,string,248
_wb_ProjectScratch_dir(1) = 'D:\Sneha\IIT\Assignments\_ProjectScratch\Scr27D9\'
*DIM,_wb_SolverFiles_dir,string,248
_wb_SolverFiles_dir(1) = 'D:\Sneha\IIT\Assignments\Beam_Analysis_files\dp0\SYS\MECH\'
*DIM,_wb_userfiles_dir,string,248
_wb_userfiles_dir(1) = 'D:\Sneha\IIT\Assignments\Beam_Analysis_files\user_files\'
/com,--- Data in consistent BIN units. See Solving Units in the help system for more information.
/units,BIN
/nopr
/wb,file,start              !  signify a WB generated input file
/prep7
! Turn off shape checking because checks already performed inside WB mesher.
! See help system for more information.
SHPP,OFF,,NOWARN
/nolist
etcon,set             ! allow ANSYS to choose best KEYOP's for 180x elements, resets any applicable keyopt to MAPDL defaults
/com,*********** Nodes for the whole assembly ***********
nblock,3,,6909
(1i9,3e20.9e3)
        1     8.571428571E-01     2.142857143E+00    -1.430063789E+00
        2     8.571428571E-01     2.142857143E+00    -6.800637891E-01
        3     8.571428571E-01     2.142857143E+00     6.993621095E-02
        4     1.714285714E+00     2.142857143E+00    -1.430063789E+00
        5     1.714285714E+00     2.142857143E+00    -6.800637891E-01
        6     1.714285714E+00     2.142857143E+00     6.993621095E-02
        7     2.571428571E+00     2.142857143E+00    -1.430063789E+00
        8     2.571428571E+00     2.142857143E+00    -6.800637891E-01
        9     2.571428571E+00     2.142857143E+00     6.993621095E-02
       10     3.428571429E+00     2.142857143E+00    -1.430063789E+00
       11     3.428571429E+00     2.142857143E+00    -6.800637891E-01
       12     3.428571429E+00     2.142857143E+00     6.993621095E-02
       13     4.285714286E+00     2.142857143E+00    -1.430063789E+00
       14     4.285714286E+00     2.142857143E+00    -6.800637891E-01
       15     4.285714286E+00     2.142857143E+00     6.993621095E-02
       16     5.142857143E+00     2.142857143E+00    -1.430063789E+00
       17     5.142857143E+00     2.142857143E+00    -6.800637891E-01
       18     5.142857143E+00     2.142857143E+00     6.993621095E-02
       19     6.000000000E+00     2.142857143E+00    -1.430063789E+00
       20     6.000000000E+00     2.142857143E+00    -6.800637891E-01
! ... 6262 like lines cut
/com,*********** Nodes for all Remote Points ***********
nblock,3
(1i9,3e20.9e3)
     6282     0.000000000E+00    -3.000000037E+00    -6.800638072E-01
-1
/wb,elem,start            !  set before creation of elements
/com,*********** Elements for Body 1 "Solid" ***********
et,1,186
keyo,1,2,1          ! set full integration on SOLID186
eblock,19,solid,,1176
(19i9)
        1        1        1        1        0        0        0        0       20        0        1        1     1709     1498     1483      984     1715     1497     1496
     1726     5901     5883     1725     4860     5899     5897     4859     1724     6267     5898     5882
        1        1        1        1        0        0        0        0       20        0        2        1     1483     1498     1709        2     1470     1499     1703
     1725     5883     5901     1726     1730     5856     5903     1731     1721     5855     5900     6256
        1        1        1        1        0        0        0        0       20        0        3        2     1470     1499     1703        3     1457     1500     1697
     1730     5856     5903     1731     1735     5829     5904     1736     1727     5828     5902     6245
        1        1        1        1        0        0        0        0       20        0        4        3     1457     1500     1697      985     1286     1285     1231
     1735     5829     5904     1736     4864     5510     5401     4863     1734     5513     5511     5402
        1        1        1        1        0        0        0        0       20        0        5        1      124     1710     1709      984      943     1716     1715
     1723     2261     6266     1726     4776     4777     6277     4860     1724     2260     6269     6267
        1        1        1        1        0        0        0        0       20        0        6        1     1709     1710      124        2     1703     1704      125
     1726     6266     2261     1723     1731     6255     2265     1729     1721     6256     6258     2257
        1        1        1        1        0        0        0        0       20        0        7        2     1703     1704      125        3     1697     1698      126
     1731     6255     2265     1729     1736     6244     2269     1733     1727     6245     6247     2262
        1        1        1        1        0        0        0        0       20        0        8        3     1697     1698      126      985     1231     1232     1026
     1736     6244     2269     1733     4863     5400     4987     4862     1734     5402     5404     2268
        1        1        1        1        0        0        0        0       20        0        9      124      247     1711     1710      943      902     1717     1716
     2259     2674     6268     2261     4693     4694     6278     4777     2260     2673     6271     6269
        1        1        1        1        0        0        0        0       20        0       10      124     1710     1711      247      125     1704     1705      248
     2261     6268     2674     2259     2265     6257     2678     2264     2257     6258     6260     2670
! ... 2333 like lines cut
!Material Id = {8E78D2EE-A6D1-4FD6-9465-9CB9570995E4}
/wb,elem,end               !  done creating elements
/com,*********** Send User Defined Coordinate System(s) ***********
csys,0
toffst,459.67,  ! Temperature offset from absolute zero
/com,*********** Set Reference Temperature ***********
tref,71.6
/wb,mat,start              !  starting to send materials
/com,*********** Send Materials ***********
MP,EX,1,29007547.5428236,	! slinch s^-2 in^-1
MP,NUXY,1,0,
MP,UVID,1,fff12754-b9b0-426b-a202-0e1cd9d42e65

/wb,mat,end                !  done sending materials
!************************* Model Summary ********************
!Solid,	Material1,	matid,	1
!************************* End Model Summary ********************
! get the diagonal of the bounding box. Needed later for other things
*get,_xmin,node,,mnloc,x
*get,_ymin,node,,mnloc,y
*get,_zmin,node,,mnloc,z
*get,_xmax,node,,mxloc,x
*get,_ymax,node,,mxloc,y
*get,_zmax,node,,mxloc,z
_ASMDIAG=(_xmax-_xmin)*(_xmax-_xmin)+(_ymax-_ymin)*(_ymax-_ymin)+(_zmax-_zmin)*(_zmax-_zmin)
_ASMDIAG=SQRT(_ASMDIAG)
/wb,contact,start          !  starting to send contact
/wb,contact,end            !  done creating contacts
/golist
/wb,load,start             !  starting to send loads
/com,******* Constant Zero Displacement Y *******
CMBLOCK,_DISPZEROUY,NODE,        9
(8i10)
      1328      1381      1382      1383      1384      5595      5691      5693
      5695
cmsel,s,_DISPZEROUY
d,all,uy,0
nsel,all
/com,******* Constant Zero Displacement Z *******
CMBLOCK,_DISPZEROUZ,NODE,        9
(8i10)
      1328      1381      1382      1383      1384      5595      5691      5693
      5695
cmsel,s,_DISPZEROUZ
d,all,uz,0
nsel,all
/com,*********** Create Remote Point "Internal Remote Point" ***********
! -------- Remote Point Used by "Remote Displacement" --------
*set,tid,3
*set,cid,2
et,cid,175
et,tid,170
keyo,tid,2,1               ! Don't fix the pilot node
keyo,tid,4,111111
keyo,cid,12,5              ! Bonded Contact 
keyo,cid,4,1               ! Deformable RBE3 style load
keyo,cid,2,2               ! MPC style contact
! growing edge scoping into the face since scoped to a straight edge
mat,2
real,2
type,2
en,2158,1236
en,2159,1300
en,2160,1301
en,2161,1389
en,2162,1402
en,2163,1415
en,2164,1440
en,2165,1441
en,2166,1442
en,2167,1443
en,2168,1444
en,2169,1702
en,2170,1708
en,2171,1714
en,2172,1720
en,2173,5411
en,2174,5412
en,2175,5539
en,2176,5540
en,2177,5542
! ... 17 like lines cut
*set,_npilot,6282
_npilot93=_npilot
type,tid
mat ,cid
real,cid
tshape,pilo
en,2195,_npilot
tshape
/com,*********** Define Force Using Surface Effect Elements ***********
local,12,0,0.,0.,0.,0.,0.,0.
csys,0
et,4,156
keyop,4,5,1         !  No orientation node
eblock,10,,,4
(15i9)
     2196        4        4        4       12     1502     1501     5905
     2197        4        4        4       12     1502     1503     5907
     2198        4        4        4       12     1503     1504     5909
     2199        4        4        4       12     1504     1299     5538
-1
esel,s,type,,4
keyop,4,2,1                ! Apply load in local coordinate system
keyop,4,7,1                ! Use original area so load is constant in large deformation
esel,all
/com,*********** Define Force Using Surface Effect Elements ***********
local,13,0,0.,0.,0.,0.,0.,0.
csys,0
et,5,156
keyop,5,5,1         !  No orientation node
eblock,10,,,4
(15i9)
     2200        5        5        5       13     1670     1669     6199
     2201        5        5        5       13     1670     1671     6201
     2202        5        5        5       13     1671     1672     6203
     2203        5        5        5       13     1672     1256     5453
-1
esel,s,type,,5
keyop,5,2,1                ! Apply load in local coordinate system
keyop,5,7,1                ! Use original area so load is constant in large deformation
esel,all
/com,*********** Construct Remote Displacement ***********

/COM,*** Create a component for all remote displacements ***
CMBLOCK,REMOTEDISPALL,NODE,        1
(8i10)
      6282

/gst,on,on
fini
*get,_numnode,node,0,count
*get,_numelem,elem,0,count
*get, _MAXELEMNUM, elem, 0, NUM, MAX
*get, _MAXNODENUM, node, 0, NUM, MAX
*get, _MAXELEMTYPE, etyp, 0, NUM, MAX
*get, _MAXREALCONST, rcon, 0, NUM, MAX
/go
/wb,load,end               !  done creating loads
/com,--- Number of total nodes = %_numnode%
/com,--- Number of contact elements = 45
/com,--- Number of spring elements = 0
/com,--- Number of bearing elements = 0
/com,--- Number of solid elements = 1176
/com,--- Number of condensed parts = 0
/com,--- Number of total elements = %_numelem%
*get,_wallbsol,active,,time,wall
/com,****************************************************************************
/com,*************************    SOLUTION       ********************************
/com,****************************************************************************
/solu
antype,0                   ! static analysis
_thickRatio=  1     ! Ratio of thick parts in the model
eqsl,pcg,1e-8,,,,,,1
cntr,print,1               ! print out contact info and also make no initial contact an error
dmpoption,emat,no             ! Don't combine emat file for DANSYS
dmpoption,esav,no             ! Don't combine esav file for DANSYS
nldiag,cont,iter           ! print out contact info each equilibrium iteration
rescontrol,,none                 ! Do not keep any restart files
/com,****************************************************
/com,******************* SOLVE FOR LS 1 OF 1 ****************
esel,s,type,,4
nsle
sfe,all,1,pres,1,0.
sfe,all,2,pres,1,-1999.99999966098
sfe,all,3,pres,1,0.
esel,s,type,,5
nsle
sfe,all,1,pres,1,0.
sfe,all,2,pres,1,-999.999999830492
sfe,all,3,pres,1,0.
nsel,all
esel,all
d,6282,ux,0.
d,6282,uy,0.
d,6282,uz,0.
d,6282,rotx,0.
d,6282,roty,0.
/nopr
/gopr
nsub,1,1,1
time,5.
outres,erase
outres,all,none
outres,nsol,all,
outres,rsol,all
outres,eangl,all
outres,etmp,all
outres,veng,all
outres,strs,all,
outres,epel,all,
outres,eppl,all,
outres,cont,all,
! *********** WB SOLVE COMMAND ***********
! check interactive state
*get,ANSINTER_,active,,int
*if,ANSINTER_,ne,0,then
/eof
*endif
solve
/com *************** Write FE CONNECTORS ********* 
CEWRITE,file,ce,,INTE
/com,****************************************************
/com,*************** FINISHED SOLVE FOR LS 1 *************
*get,_wallasol,active,,time,wall
/nopr
*get,_numnode,node,0,count
*get,_numelem,elem,0,count
*get, _MAXELEMNUM, elem, 0, NUM, MAX
*get, _MAXNODENUM, node, 0, NUM, MAX,,,INTERNAL
*get, _MAXELEMTYPE, etyp, 0, NUM, MAX
*get, _MAXREALCONST, rcon, 0, NUM, MAX
*get,_NSOLTHREADS,active,0,ntfs
*get,_NSOLPROCESSES,active,0,npfs
/gopr
*get,_PCGITER,active,,solu,cgiter
/post1
xmlo,ENCODING,ISO-8859-1
xmlo,parm
/xml,parm,xml
fini
/gopr
*get,_walldone,active,,time,wall
_preptime=(_wallbsol-_wallstrt)*3600
_solvtime=(_wallasol-_wallbsol)*3600
_posttime=(_walldone-_wallasol)*3600
_totaltim=(_walldone-_wallstrt)*3600
*get,_dlbratio,active,0,solu,dlbr
*get,_combtime,active,0,solu,comb
*get,_ssmode,active,0,solu,ssmm
*get,_ndofs,active,0,solu,ndof
*get,_sol_end_time,active,0,set,time
*if,_sol_end_time,eq,5.000000,then
/fclean				!clean distributed files
*endif
/com,--- Total number of nodes = %_numnode%
/com,--- Total number of elements = %_numelem%
/com,--- Element load balance ratio = %_dlbratio%
/com,--- Time to combine distributed files = %_combtime%
/com,--- Sparse memory mode = %_ssmode%
/com,--- Number of DOF = %_ndofs%
/wb,file,end               ! done with WB generated input
