/batch
/config,noeldb,1     ! force off writing results to database
*get,_wallstrt,active,,time,wall
! ANSYS input file written by Workbench version 2022 R2
! File used for geometry attach: D:\Sneha\IIT\Assignments\Beam_Analysis_files\dp0\SYS-1\DM\SYS-1.agdb
/title,Beam_Analysis--Static Structural (B5)
! ****** Begin Custom Load Command Snippet ******
/COM, ACT Extensions:
/COM,     LSDYNA, 2022.2
/COM,     5f463412-bd3e-484b-87e7-cbc0a665e474, wbex
/COM,/COM,     ANSYSMotion, 2022.2
/COM,     20180725-3f81-49eb-9f31-41364844c769, wbex
/COM,/COM,     AqwaLoadMapping, 2022.2
/COM,     4a217913-2035-4362-96b3-10d129d8ee46, wbex
/COM,
! ****** End   Custom Load Command Snippet ******
*DIM,_wb_ProjectScratch_dir,string,248
_wb_ProjectScratch_dir(1) = 'D:\Sneha\IIT\Assignments\_ProjectScratch\Scr293F\'
*DIM,_wb_SolverFiles_dir,string,248
_wb_SolverFiles_dir(1) = 'D:\Sneha\IIT\Assignments\Beam_Analysis_files\dp0\SYS-1\MECH\'
*DIM,_wb_userfiles_dir,string,248
_wb_userfiles_dir(1) = 'D:\Sneha\IIT\Assignments\Beam_Analysis_files\user_files\'
/com,--- Data in consistent BIN units. See Solving Units in the help system for more information.
/units,BIN
/nopr
/wb,file,start              !  signify a WB generated input file
/prep7
! Turn off shape checking because checks already performed inside WB mesher.
! See help system for more information.
SHPP,OFF,,NOWARN
/nolist
etcon,set             ! allow ANSYS to choose best KEYOP's for 180x elements, resets any applicable keyopt to MAPDL defaults
/com,*********** Nodes for the whole assembly ***********
nblock,3,,47
(1i9,3e20.9e3)
        1     1.200000000E+01     0.000000000E+00     0.000000000E+00
        2     0.000000000E+00     0.000000000E+00     0.000000000E+00
        3     1.028571429E+01     0.000000000E+00     0.000000000E+00
        4     8.571428571E+00     0.000000000E+00     0.000000000E+00
        5     6.857142857E+00     0.000000000E+00     0.000000000E+00
        6     5.142857143E+00     0.000000000E+00     0.000000000E+00
        7     3.428571429E+00     0.000000000E+00     0.000000000E+00
        8     1.714285714E+00     0.000000000E+00     0.000000000E+00
        9     2.400000000E+01     0.000000000E+00     0.000000000E+00
       10     3.600000000E+01     0.000000000E+00     0.000000000E+00
       11     2.571428571E+01     0.000000000E+00     0.000000000E+00
       12     2.742857143E+01     0.000000000E+00     0.000000000E+00
       13     2.914285714E+01     0.000000000E+00     0.000000000E+00
       14     3.085714286E+01     0.000000000E+00     0.000000000E+00
       15     3.257142857E+01     0.000000000E+00     0.000000000E+00
       16     3.428571429E+01     0.000000000E+00     0.000000000E+00
       17     1.371428571E+01     0.000000000E+00     0.000000000E+00
       18     1.542857143E+01     0.000000000E+00     0.000000000E+00
       19     1.714285714E+01     0.000000000E+00     0.000000000E+00
       20     1.885714286E+01     0.000000000E+00     0.000000000E+00
! ... 24 like lines cut
/com,*********** Nodes for all Remote Points ***********
nblock,3
(1i9,3e20.9e3)
       44     0.000000000E+00     0.000000000E+00     0.000000000E+00
-1
/wb,elem,start            !  set before creation of elements
/com,*********** Elements for Body 1 "Line Body" ***********
et,1,188
keyo,1,3,2
eblock,19,solid,,21
(19i9)
        1        1        1        1        0        0        0        0        3        0        1        1        3       23
        1        1        1        1        0        0        0        0        3        0        2        3        4       24
        1        1        1        1        0        0        0        0        3        0        3        4        5       25
        1        1        1        1        0        0        0        0        3        0        4        5        6       26
        1        1        1        1        0        0        0        0        3        0        5        6        7       27
        1        1        1        1        0        0        0        0        3        0        6        7        8       28
        1        1        1        1        0        0        0        0        3        0        7        8        2       29
        1        1        1        1        0        0        0        0        3        0        8        9       11       30
        1        1        1        1        0        0        0        0        3        0        9       11       12       31
        1        1        1        1        0        0        0        0        3        0       10       12       13       32
        1        1        1        1        0        0        0        0        3        0       11       13       14       33
        1        1        1        1        0        0        0        0        3        0       12       14       15       34
        1        1        1        1        0        0        0        0        3        0       13       15       16       35
        1        1        1        1        0        0        0        0        3        0       14       16       10       36
        1        1        1        1        0        0        0        0        3        0       15        1       17       37
        1        1        1        1        0        0        0        0        3        0       16       17       18       38
        1        1        1        1        0        0        0        0        3        0       17       18       19       39
        1        1        1        1        0        0        0        0        3        0       18       19       20       40
        1        1        1        1        0        0        0        0        3        0       19       20       21       41
        1        1        1        1        0        0        0        0        3        0       20       21       22       42
        1        1        1        1        0        0        0        0        3        0       21       22        9       43
-1
!Material Id = {BC345EB8-C01F-42AD-9DC7-F3B13BD1A720}
/wb,elem,end               !  done creating elements
/com,*********** Send User Defined Coordinate System(s) ***********
csys,0
toffst,459.67,  ! Temperature offset from absolute zero
/com,*********** Set Reference Temperature ***********
tref,71.6
/wb,mat,start              !  starting to send materials
/com,*********** Send Materials ***********
Temperature = 'TEMP' ! Temperature
MP,DENS,1,0.000734544492879577,	! slinch in^-3
MP,ALPX,1,6.66666666666667e-06,	! F^-1
MP,C,1,373722.969668162,	! in^2 s^-2 F^-1
MP,KXX,1,7.55607836445752,	! slinch in s^-3 F^-1
MP,RSVX,1,8.52348993288591,	! ohm cmil in^-1
MP,EX,1,29007547.5428236,	! slinch s^-2 in^-1
MP,NUXY,1,0.3,
MP,MURX,1,10000,
MP,UVID,1,52686355-9ecb-47fe-abf3-cb20a1f817fe
MP,UMID,1,59002a79-71c2-428e-906b-55d7dbee100e

/wb,mat,end                !  done sending materials
/com,*********** Send Beam Properties ***********
SECTYPE,1,BEAM,RECT
SECDATA,3.,6.
secoffset,cent

!************************* Model Summary ********************
!Line Body,	Structural Steel,	matid,	1
!************************* End Model Summary ********************
! get the diagonal of the bounding box. Needed later for other things
*get,_xmin,node,,mnloc,x
*get,_ymin,node,,mnloc,y
*get,_zmin,node,,mnloc,z
*get,_xmax,node,,mxloc,x
*get,_ymax,node,,mxloc,y
*get,_zmax,node,,mxloc,z
_ASMDIAG=(_xmax-_xmin)*(_xmax-_xmin)+(_ymax-_ymin)*(_ymax-_ymin)+(_zmax-_zmin)*(_zmax-_zmin)
_ASMDIAG=SQRT(_ASMDIAG)
/wb,contact,start          !  starting to send contact
/wb,contact,end            !  done creating contacts
/golist
/wb,load,start             !  starting to send loads
/com,******* Constant Zero Displacement Y *******
CMBLOCK,_DISPZEROUY,NODE,        1
(8i10)
         9
cmsel,s,_DISPZEROUY
d,all,uy,0
nsel,all
/com,******* Constant Zero Displacement Z *******
CMBLOCK,_DISPZEROUZ,NODE,        1
(8i10)
         9
cmsel,s,_DISPZEROUZ
d,all,uz,0
nsel,all
/com,*********** Create Remote Point "Internal Remote Point" ***********
! -------- Remote Point Used by "Remote Displacement" --------
*set,_npilot,44
_npilot52=_npilot
et,2,170
type,2
real,2
mat,2
keyo,2,2,1              ! don't fix pilot node
keyo,2,4,111111
tshape,pilo
en,23,44        ! create pilot node for rigid link
tshape
en,24,44,2
/com,*********** Define Vertex Force Using Follower Elements ***********
et,3,201
keyo,3,1,1           ! Keep the direction constant
keyo,3,2,1           ! Apply Forces only, not moment
mat,3
real,3
type,3
en,25,1
r,3
rmod,3,1,1.0,              ! FX
mat,4
real,4
type,3
en,26,1
r,4
rmod,4,2,1.0,              ! FY
mat,5
real,5
type,3
en,27,1
r,5
rmod,5,3,1.0,              ! FZ
/com,*********** Define Vertex Force Using Follower Elements ***********
et,6,201
keyo,6,1,1           ! Keep the direction constant
keyo,6,2,1           ! Apply Forces only, not moment
mat,6
real,6
type,6
en,28,10
r,6
rmod,6,1,1.0,              ! FX
mat,7
real,7
type,6
en,29,10
r,7
rmod,7,2,1.0,              ! FY
mat,8
real,8
type,6
en,30,10
r,8
rmod,8,3,1.0,              ! FZ
/com,*********** Construct Remote Displacement ***********

/COM,*** Create a component for all remote displacements ***
CMBLOCK,REMOTEDISPALL,NODE,        1
(8i10)
        44

/gst,on,on
fini
*get,_numnode,node,0,count
*get,_numelem,elem,0,count
*get, _MAXELEMNUM, elem, 0, NUM, MAX
*get, _MAXNODENUM, node, 0, NUM, MAX
*get, _MAXELEMTYPE, etyp, 0, NUM, MAX
*get, _MAXREALCONST, rcon, 0, NUM, MAX
/go
/wb,load,end               !  done creating loads
/com,--- Number of total nodes = %_numnode%
/com,--- Number of contact elements = 0
/com,--- Number of spring elements = 0
/com,--- Number of bearing elements = 0
/com,--- Number of solid elements = 21
/com,--- Number of condensed parts = 0
/com,--- Number of total elements = %_numelem%
*get,_wallbsol,active,,time,wall
/com,****************************************************************************
/com,*************************    SOLUTION       ********************************
/com,****************************************************************************
/solu
antype,0                   ! static analysis
_thickRatio=  0     ! Ratio of thick parts in the model
eqsl,sparse,,,,,1
cntr,print,1               ! print out contact info and also make no initial contact an error
dmpoption,emat,no             ! Don't combine emat file for DANSYS
dmpoption,esav,no             ! Don't combine esav file for DANSYS
nldiag,cont,iter           ! print out contact info each equilibrium iteration
rescontrol,,none                 ! Do not keep any restart files
/com,****************************************************
/com,******************* SOLVE FOR LS 1 OF 1 ****************
esel,s,real,,3
sfe,all,1,pres,1,0.
esel,s,real,,4
sfe,all,1,pres,1,-5999.99999898295
esel,s,real,,5
sfe,all,1,pres,1,0.
esel,s,real,,6
sfe,all,1,pres,1,0.
esel,s,real,,7
sfe,all,1,pres,1,-2999.99999949148
esel,s,real,,8
sfe,all,1,pres,1,0.
esel,all
d,44,ux,0.
d,44,uy,0.
d,44,uz,0.
d,44,rotx,0.
d,44,roty,0.
/nopr
/gopr
nsub,1,1,1
time,1.
outres,erase
outres,all,none
outres,nsol,all,
outres,rsol,all
outres,eangl,all
outres,etmp,all
outres,veng,all
outres,strs,all,
outres,epel,all,
outres,eppl,all,
outres,cont,all,
/nopr
esel,s,type,,1
cm,_elmisc,elem
esel,all
/gopr
outres,misc,all,_elmisc
! *********** WB SOLVE COMMAND ***********
! check interactive state
*get,ANSINTER_,active,,int
*if,ANSINTER_,ne,0,then
/eof
*endif
solve
/com *************** Write FE CONNECTORS ********* 
CEWRITE,file,ce,,INTE
/com,****************************************************
/com,*************** FINISHED SOLVE FOR LS 1 *************
*get,_wallasol,active,,time,wall
/nopr
*get,_numnode,node,0,count
*get,_numelem,elem,0,count
*get, _MAXELEMNUM, elem, 0, NUM, MAX
*get, _MAXNODENUM, node, 0, NUM, MAX,,,INTERNAL
*get, _MAXELEMTYPE, etyp, 0, NUM, MAX
*get, _MAXREALCONST, rcon, 0, NUM, MAX
*get,_NSOLTHREADS,active,0,ntfs
*get,_NSOLPROCESSES,active,0,npfs
/gopr
/post1
xmlo,ENCODING,ISO-8859-1
xmlo,parm
/xml,parm,xml
fini
/gopr
*get,_walldone,active,,time,wall
_preptime=(_wallbsol-_wallstrt)*3600
_solvtime=(_wallasol-_wallbsol)*3600
_posttime=(_walldone-_wallasol)*3600
_totaltim=(_walldone-_wallstrt)*3600
*get,_dlbratio,active,0,solu,dlbr
*get,_combtime,active,0,solu,comb
*get,_ssmode,active,0,solu,ssmm
*get,_ndofs,active,0,solu,ndof
*get,_sol_end_time,active,0,set,time
*if,_sol_end_time,eq,1.000000,then
/fclean				!clean distributed files
*endif
/com,--- Total number of nodes = %_numnode%
/com,--- Total number of elements = %_numelem%
/com,--- Element load balance ratio = %_dlbratio%
/com,--- Time to combine distributed files = %_combtime%
/com,--- Sparse memory mode = %_ssmode%
/com,--- Number of DOF = %_ndofs%
/wb,file,end               ! done with WB generated input
